 &time_control
 run_days                            = 0,
 run_hours                           = 0,
 run_minutes                         = 40,
 run_seconds                         = 0,
 start_year                          = 2006, 2999, 2999,
 start_month                         = 04,   06,   06,
 start_day                           = 06,   11,   11,
 start_hour                          = 00,   12,   12,
 start_minute                        = 00,   00,   00,
 start_second                        = 00,   00,   00,
 end_year                            = 2006, 2999, 2999,
 end_month                           = 04,   06,   06,
 end_day                             = 06,   12,   12,
 end_hour                            = 12,   12,   12,
 end_minute                          = 00,   00,   00,
 end_second                          = 00,   00,   00,
 interval_seconds                    = 10800
 input_from_file                     = .true.,.false.,.false.,
 history_interval                    = 40,  60,   60,
 frames_per_outfile                  = 12, 1000, 1000,
 restart                             = .false.,
 restart_interval                    = 5000,
 io_form_history                     = 2
 io_form_restart                     = 2
 io_form_input                       = 2
 io_form_boundary                    = 2
 io_form_auxinput4                   = 2
 io_form_auxinput5                   = 2
 io_form_auxinput12                  = 2
 auxinput5_interval_m                = 60, 60, 60
 debug_level                         = 00
 auxinput1_inname                    = "met_em.d<domain>.<date>"
 auxinput5_inname                    = "wrfchemi_d<domain>_<date>"
 auxinput12_inname                   = "wrf_chem_input"
 /

 &domains
 time_step                           = 240,
 time_step_fract_num                 = 0,
 time_step_fract_den                 = 1,
 max_dom                             = 1,
 s_we                                = 1,     1,     1,
 e_we                                = 40,    112,   94,
 s_sn                                = 1,     1,     1,
 e_sn                                = 40,    97,    91,
 s_vert                              = 1,     1,     1,
 e_vert                              = 20,    28,    28,
 num_metgrid_levels                  = 40
 eta_levels                          = 1.0 , 0.97 , 0.94 , 0.91 , 0.88 , 0.85 , 0.83 , 0.8 , 0.77 , 0.73 , 0.69 , 0.65 , 0.6 , 0.53 , 0.41 , 0.3 , 0.2 , 0.1 , 0.05 , 0.0
 dx                                  = 60000,  3333,  1111,
 dy                                  = 60000,  3333,  1111,
 grid_id                             = 1,     2,     3,
 parent_id                           = 0,     1,     2,
 i_parent_start                      = 0,     30,    30,
 j_parent_start                      = 0,     20,    30,
 parent_grid_ratio                   = 1,     3,     3,
 parent_time_step_ratio              = 1,     3,     3,
 feedback                            = 1,
 smooth_option                       = 0
 /

 &physics
 mp_physics                          = 4,     2,     2,
 ra_lw_physics                       = 1,     1,     1,
 ra_sw_physics                       = 1,     1,     1,
 radt                                = 30,    10,    10,
 sf_sfclay_physics                   = 1,     1,     1,
 sf_surface_physics                  = 2,     2,     2,
 bl_pbl_physics                      = 1,     1,     1,
 bldt                                = 1,     0,     0,
 cu_physics                          = 3,     1,     0,
 cu_diag                             = 1,     1,     0,
 ishallow                            = 0,
 cu_rad_feedback                     = .false.,.false.,.false.
 cudt                                = 1,     5,     5,
 isfflx                              = 1,
 ifsnow                              = 1,
 icloud                              = 1,
 surface_input_source                = 1,
 num_soil_layers                     = 4,
 mp_zero_out                         = 2,
 mp_zero_out_thresh                  = 1.e-8,
 maxiens                             = 1,
 maxens                              = 3,
 maxens2                             = 3,
 maxens3                             = 16,
 ensdim                              = 144,
 /

 &fdda
 /

 &dynamics
 rk_ord                              = 3,
 w_damping                           = 1,
 diff_opt                            = 1,
 km_opt                              = 4,
 damp_opt                            = 0,
 zdamp                               = 5000.,  5000.,  5000.,
 dampcoef                            = 0.2,    0.2,    0.2
 khdif                               = 0,      0,      0,
 kvdif                               = 0,      0,      0,
 smdiv                               = 0.1,    0.1,    0.1,
 emdiv                               = 0.01,   0.01,   0.01,
 epssm                               = 0.1,    0.1,    0.1
 moist_adv_opt                       = 0,       0,       0,      
 scalar_adv_opt                      = 0,       0,       0,      
 chem_adv_opt                        = 0,       0,       0,      
 tke_adv_opt                         = 0,       0,       0,      
 tracer_adv_opt                      = 0,       0,       0,      
 non_hydrostatic                     = .true., .true., .true.,
 time_step_sound                     = 4,      4,      4,
 h_mom_adv_order                     = 5,      5,      5,
 v_mom_adv_order                     = 3,      3,      3,
 h_sca_adv_order                     = 5,      5,      5,
 v_sca_adv_order                     = 3,      3,      3,
 /

 &bdy_control
 spec_bdy_width                      = 5,
 spec_zone                           = 1,
 relax_zone                          = 4,
 specified                           = .true., .false.,.false.,
 periodic_x                          = .false.,.false.,.false.,
 symmetric_xs                        = .false.,.false.,.false.,
 symmetric_xe                        = .false.,.false.,.false.,
 open_xs                             = .false.,.false.,.false.,
 open_xe                             = .false.,.false.,.false.,
 periodic_y                          = .false.,.false.,.false.,
 symmetric_ys                        = .false.,.false.,.false.,
 symmetric_ye                        = .false.,.false.,.false.,
 open_ys                             = .false.,.false.,.false.,
 open_ye                             = .false.,.false.,.false.,
 nested                              = .false., .true., .true.,
 /

 &grib2
 /

 &namelist_quilt
 nio_tasks_per_group = 0,
 nio_groups = 1,
 /
 &chem
 kemit                               = 19,
 chem_opt                            = 13, 
 bioemdt                             = 30,
 photdt                              = 30,
 chemdt                              = 4.0,     
 emiss_inpt_opt                      = 1,
 io_style_emissions                  = 2,
 chem_in_opt                         = 0,
 phot_opt                            = 1,
 bio_emiss_opt                       = 1,
 gas_drydep_opt                      = 1,
 aer_drydep_opt                      = 1,
 gas_bc_opt                          = 1,
 gas_ic_opt                          = 1,
 aer_bc_opt                          = 1,
 aer_ic_opt                          = 1,
 gaschem_onoff                       = 1,
 aerchem_onoff                       = 1,
 wetscav_onoff                       = 0,
 cldchem_onoff                       = 0, 
 vertmix_onoff                       = 1, 
 chem_conv_tr                        = 1, 
 /

LSF_TIME=0:10
NQS_TIME=0:10:00
NUM_PROCESSORS=9
